/*--------------------------------*- C++ -*----------------------------------*\
| =========                 |                                                 |
| \\      /  F ield         | OpenFOAM: The Open Source CFD Toolbox           |
|  \\    /   O peration     | Version:  v1906                                 |
|   \\  /    A nd           | Web:      www.OpenFOAM.com                      |
|    \\/     M anipulation  |                                                 |
\*---------------------------------------------------------------------------*/
FoamFile
{
    version     2.0;
    format      ascii;
    class       volVectorField;
    object      U;
}
// * * * * * * * * * * * * * * * * * * * * * * * * * * * * * * * * * * * * * //

dimensions      [0 1 -1 0 0 0 0];

internalField   uniform (0 0 0.0001);

boundaryField
{
    outlet
    {
        type            zeroGradient;
    }

    wall
    {
        type            noSlip;
    }
    inlet
    {
	type            fixedValue;
        value           uniform (0 0 0.0001);
    /*	
        type                    flowRateInletVelocity;
        volumetricFlowRate      0.0022;
        //extrapolateProfile      yes;
        value                   $internalField;
*/

    }
}

// ************************************************************************* //
