/*--------------------------------*- C++ -*----------------------------------*\
| =========                 |                                                 |
| \\      /  F ield         | OpenFOAM: The Open Source CFD Toolbox           |
|  \\    /   O peration     | Version:  2312                                  |
|   \\  /    A nd           | Website:  www.openfoam.com                      |
|    \\/     M anipulation  |                                                 |
\*---------------------------------------------------------------------------*/
FoamFile
{
    version     2.0;
    format      ascii;
    arch        "LSB;label=32;scalar=64";
    class       polyBoundaryMesh;
    location    "constant/shell/polyMesh";
    object      boundary;
}
// * * * * * * * * * * * * * * * * * * * * * * * * * * * * * * * * * * * * * //


8
(
    outershell
    {
        type            wall;
        nFaces          1712;
        startFace       12211;
    }

    shellend1
    {
        type            wall;
        nFaces          107;
        startFace       13923;
    }

    shellend2
    {
        type            wall;
        nFaces          107;
        startFace       14030;
    }

    inletshell
    {
        type            wall;
        nFaces          62;
        startFace       14137;
    }

    outletshell
    {
        type            wall;
        nFaces          62;
        startFace       14199;
    }

    inlet
    {
        type            patch;
        nFaces          24;
        startFace       14261;
    }

    outlet
    {
        type            patch;
        nFaces          24;
        startFace       14285;
    }

    shell_to_copper
    {
        type            mappedWall;
        inGroups        1 ( wall );
        nFaces          2820;
        startFace       14309;
        sampleMode      nearestPatchFace;
        sampleRegion    copper;
        samplePatch     copper_to_shell;
    }

)


// ************************************************************************* //
