/*--------------------------------*- C++ -*----------------------------------*\
| =========                 |                                                 |
| \\      /  F ield         | OpenFOAM: The Open Source CFD Toolbox           |
|  \\    /   O peration     | Version:  2312                                  |
|   \\  /    A nd           | Website:  www.openfoam.com                      |
|    \\/     M anipulation  |                                                 |
\*---------------------------------------------------------------------------*/
FoamFile
{
    version     2.0;
    format      ascii;
    arch        "LSB;label=32;scalar=64";
    class       volScalarField;
    location    "0/shell";
    object      p;
}
// * * * * * * * * * * * * * * * * * * * * * * * * * * * * * * * * * * * * * //

dimensions      [ 1 -1 -2 0 0 0 0 ];

internalField   uniform 100000;

boundaryField
{
    outershell
    {
        type            calculated;
        value           uniform 100000;
    }
    shellend1
    {
        type            calculated;
        value           uniform 100000;
    }
    shellend2
    {
        type            calculated;
        value           uniform 100000;
    }
    inletshell
    {
        type            calculated;
        value           uniform 100000;
    }
    outletshell
    {
        type            calculated;
        value           uniform 100000;
    }
    inlet
    {
        type            calculated;
        value           uniform 100000;
    }
    outlet
    {
        type            calculated;
        value           uniform 100000;
    }
    shell_to_copper
    {
        type            calculated;
        value           uniform 100000;
    }
}


// ************************************************************************* //
